<?xml version="1.0" encoding="UTF-8"?>

<!-- generated on 01/13/25 01:27:59 by Eclipse SUMO netconvert Version 1.3.1
<configuration xmlns:xsi="http://www.w3.org/2001/XMLSchema-instance" xsi:noNamespaceSchemaLocation="http://sumo.dlr.de/xsd/netconvertConfiguration.xsd">

    <input>
        <osm-files value="erlangen.osm"/>
    </input>

    <output>
        <output-file value="erlangen.net.xml"/>
    </output>

    <projection>
        <proj.utm value="true"/>
    </projection>

</configuration>
-->

<net version="1.3" junctionCornerDetail="5" limitTurnSpeed="5.50" xmlns:xsi="http://www.w3.org/2001/XMLSchema-instance" xsi:noNamespaceSchemaLocation="http://sumo.dlr.de/xsd/net_file.xsd">

    <location netOffset="-218251.83,-2526611.57" convBoundary="0.00,0.00,5745.48,8071.79" origBoundary="120.253730,22.823718,120.331316,22.896717" projParameter="+proj=utm +zone=51 +ellps=WGS84 +datum=WGS84 +units=m +no_defs"/>

    <type id="highway.bridleway" priority="1" numLanes="1" speed="2.78" allow="pedestrian" oneway="1" width="2.00"/>
    <type id="highway.bus_guideway" priority="1" numLanes="1" speed="27.78" allow="bus" oneway="1"/>
    <type id="highway.cycleway" priority="1" numLanes="1" speed="8.33" allow="bicycle" oneway="0" width="1.00"/>
    <type id="highway.footway" priority="1" numLanes="1" speed="2.78" allow="pedestrian" oneway="1" width="2.00"/>
    <type id="highway.ford" priority="1" numLanes="1" speed="2.78" allow="army" oneway="0"/>
    <type id="highway.living_street" priority="2" numLanes="1" speed="2.78" disallow="tram rail_urban rail rail_electric rail_fast ship" oneway="0"/>
    <type id="highway.motorway" priority="14" numLanes="2" speed="39.44" allow="private emergency authority army vip passenger hov taxi bus coach delivery truck trailer motorcycle evehicle custom1 custom2" oneway="1"/>
    <type id="highway.motorway_link" priority="9" numLanes="1" speed="22.22" allow="private emergency authority army vip passenger hov taxi bus coach delivery truck trailer motorcycle evehicle custom1 custom2" oneway="1"/>
    <type id="highway.path" priority="1" numLanes="1" speed="2.78" allow="pedestrian bicycle" oneway="1" width="2.00"/>
    <type id="highway.pedestrian" priority="1" numLanes="1" speed="2.78" allow="pedestrian" oneway="1" width="2.00"/>
    <type id="highway.primary" priority="12" numLanes="2" speed="27.78" disallow="tram rail_urban rail rail_electric rail_fast ship" oneway="0"/>
    <type id="highway.primary_link" priority="7" numLanes="1" speed="22.22" disallow="tram rail_urban rail rail_electric rail_fast ship" oneway="0"/>
    <type id="highway.raceway" priority="15" numLanes="2" speed="83.33" allow="vip" oneway="0"/>
    <type id="highway.residential" priority="3" numLanes="1" speed="13.89" disallow="tram rail_urban rail rail_electric rail_fast ship" oneway="0"/>
    <type id="highway.secondary" priority="11" numLanes="2" speed="27.78" disallow="tram rail_urban rail rail_electric rail_fast ship" oneway="0"/>
    <type id="highway.secondary_link" priority="6" numLanes="1" speed="22.22" disallow="tram rail_urban rail rail_electric rail_fast ship" oneway="0"/>
    <type id="highway.service" priority="1" numLanes="1" speed="5.56" allow="pedestrian delivery bicycle" oneway="0"/>
    <type id="highway.stairs" priority="1" numLanes="1" speed="1.39" allow="pedestrian" oneway="1" width="2.00"/>
    <type id="highway.step" priority="1" numLanes="1" speed="1.39" allow="pedestrian" oneway="1" width="2.00"/>
    <type id="highway.steps" priority="1" numLanes="1" speed="1.39" allow="pedestrian" oneway="1" width="2.00"/>
    <type id="highway.tertiary" priority="10" numLanes="1" speed="22.22" disallow="tram rail_urban rail rail_electric rail_fast ship" oneway="0"/>
    <type id="highway.tertiary_link" priority="5" numLanes="1" speed="22.22" disallow="tram rail_urban rail rail_electric rail_fast ship" oneway="0"/>
    <type id="highway.track" priority="1" numLanes="1" speed="5.56" disallow="tram rail_urban rail rail_electric rail_fast ship" oneway="0"/>
    <type id="highway.trunk" priority="13" numLanes="2" speed="27.78" disallow="pedestrian bicycle tram rail_urban rail rail_electric rail_fast ship" oneway="0"/>
    <type id="highway.trunk_link" priority="8" numLanes="1" speed="22.22" disallow="pedestrian bicycle tram rail_urban rail rail_electric rail_fast ship" oneway="0"/>
    <type id="highway.unclassified" priority="4" numLanes="1" speed="13.89" disallow="tram rail_urban rail rail_electric rail_fast ship" oneway="0"/>
    <type id="highway.unsurfaced" priority="1" numLanes="1" speed="8.33" disallow="tram rail_urban rail rail_electric rail_fast ship" oneway="0"/>
    <type id="railway.highspeed" priority="21" numLanes="1" speed="69.44" allow="rail_fast" oneway="1"/>
    <type id="railway.light_rail" priority="19" numLanes="1" speed="27.78" allow="rail_urban" oneway="1"/>
    <type id="railway.preserved" priority="16" numLanes="1" speed="27.78" allow="rail" oneway="1"/>
    <type id="railway.rail" priority="20" numLanes="1" speed="44.44" allow="rail" oneway="1"/>
    <type id="railway.subway" priority="18" numLanes="1" speed="27.78" allow="rail_urban" oneway="1"/>
    <type id="railway.tram" priority="17" numLanes="1" speed="13.89" allow="tram" oneway="1"/>

    <edge id=":10232184912_0" function="internal">
        <lane id=":10232184912_0_0" index="0" disallow="tram rail_urban rail rail_electric rail_fast ship" speed="3.65" length="4.67" shape="4940.66,7737.58 4941.94,7738.25 4942.42,7739.01 4942.10,7739.84 4940.99,7740.76"/>
    </edge>
    <edge id=":10277508552_0" function="internal">
        <lane id=":10277508552_0_0" index="0" allow="pedestrian delivery bicycle" speed="5.05" length="4.99" shape="3921.80,5768.18 3921.50,5766.85 3920.84,5765.93 3919.83,5765.43 3918.47,5765.33"/>
    </edge>
    <edge id=":10277508552_1" function="internal">
        <lane id=":10277508552_1_0" index="0" disallow="tram rail_urban rail rail_electric rail_fast ship" speed="22.22" length="9.34" shape="3921.80,5768.18 3921.21,5758.86"/>
    </edge>
    <edge id=":10277508552_2" function="internal">
        <lane id=":10277508552_2_0" index="0" disallow="tram rail_urban rail rail_electric rail_fast ship" speed="3.65" length="2.34" shape="3921.80,5768.18 3922.50,5766.92 3923.27,5766.46"/>
    </edge>
    <edge id=":10277508552_9" function="internal">
        <lane id=":10277508552_9_0" index="0" disallow="tram rail_urban rail rail_electric rail_fast ship" speed="3.65" length="2.34" shape="3923.27,5766.46 3924.09,5766.80 3924.99,5767.93"/>
    </edge>
    <edge id=":10277508552_3" function="internal">
        <lane id=":10277508552_3_0" index="0" disallow="tram rail_urban rail rail_electric rail_fast ship" speed="22.22" length="9.23" shape="3924.40,5758.71 3924.99,5767.93"/>
    </edge>
    <edge id=":10277508552_4" function="internal">
        <lane id=":10277508552_4_0" index="0" allow="pedestrian delivery bicycle" speed="6.90" length="5.02" shape="3924.40,5758.71 3924.14,5761.44 3923.06,5763.45"/>
    </edge>
    <edge id=":10277508552_5" function="internal">
        <lane id=":10277508552_5_0" index="0" disallow="tram rail_urban rail rail_electric rail_fast ship" speed="3.65" length="2.34" shape="3924.40,5758.71 3923.66,5759.95 3922.88,5760.38"/>
    </edge>
    <edge id=":10277508552_10" function="internal">
        <lane id=":10277508552_10_0" index="0" allow="pedestrian delivery bicycle" speed="6.90" length="5.06" shape="3923.06,5763.45 3921.17,5764.75 3918.47,5765.33"/>
    </edge>
    <edge id=":10277508552_11" function="internal">
        <lane id=":10277508552_11_0" index="0" disallow="tram rail_urban rail rail_electric rail_fast ship" speed="3.65" length="2.34" shape="3922.88,5760.38 3922.06,5760.02 3921.21,5758.86"/>
    </edge>
    <edge id=":10277508552_6" function="internal">
        <lane id=":10277508552_6_0" index="0" disallow="tram rail_urban rail rail_electric rail_fast ship" speed="5.09" length="5.02" shape="3918.23,5762.14 3919.59,5761.85 3920.53,5761.21 3921.07,5760.21 3921.21,5758.86"/>
    </edge>
    <edge id=":10277508552_7" function="internal">
        <lane id=":10277508552_7_0" index="0" disallow="tram rail_urban rail rail_electric rail_fast ship" speed="6.87" length="10.13" shape="3918.23,5762.14 3921.00,5762.33 3923.05,5763.36 3924.38,5765.22 3924.99,5767.93"/>
    </edge>
    <edge id=":10277508552_8" function="internal">
        <lane id=":10277508552_8_0" index="0" allow="pedestrian delivery bicycle" speed="3.65" length="4.67" shape="3918.23,5762.14 3919.49,5762.85 3919.95,5763.62 3919.61,5764.45 3918.47,5765.33"/>
    </edge>
    <edge id=":10277605060_0" function="internal">
        <lane id=":10277605060_0_0" index="0" allow="pedestrian delivery bicycle" speed="5.56" length="6.03" shape="4704.67,5535.90 4703.77,5534.22 4702.75,5533.09 4701.58,5532.50 4700.29,5532.44"/>
    </edge>
    <edge id=":10277605060_1" function="internal">
        <lane id=":10277605060_1_0" index="0" allow="pedestrian delivery bicycle" speed="5.56" length="11.31" shape="4704.67,5535.90 4703.85,5532.80 4704.31,5530.40 4706.05,5528.67 4709.09,5527.64"/>
    </edge>
    <edge id=":10277605060_2" function="internal">
        <lane id=":10277605060_2_0" index="0" allow="pedestrian delivery bicycle" speed="3.65" length="4.67" shape="4704.67,5535.90 4704.94,5534.48 4705.52,5533.80 4706.41,5533.85 4707.62,5534.64"/>
    </edge>
    <edge id=":10277605060_3" function="internal">
        <lane id=":10277605060_3_0" index="0" allow="pedestrian delivery bicycle" speed="4.84" length="5.28" shape="4709.68,5530.79 4708.26,5531.27 4707.44,5532.07 4707.23,5533.20 4707.62,5534.64"/>
    </edge>
    <edge id=":10277605060_4" function="internal">
        <lane id=":10277605060_4_0" index="0" allow="pedestrian delivery bicycle" speed="5.56" length="9.53" shape="4709.68,5530.79 4700.29,5532.44"/>
    </edge>
    <edge id=":10277605060_5" function="internal">
        <lane id=":10277605060_5_0" index="0" allow="pedestrian delivery bicycle" speed="3.65" length="4.67" shape="4709.68,5530.79 4708.35,5530.22 4707.81,5529.51 4708.06,5528.65 4709.09,5527.64"/>
    </edge>
    <edge id=":10277605060_6" function="internal">
        <lane id=":10277605060_6_0" index="0" allow="pedestrian delivery bicycle" speed="5.56" length="9.45" shape="4699.78,5529.29 4709.09,5527.64"/>
    </edge>
    <edge id=":10277605060_7" function="internal">
        <lane id=":10277605060_7_0" index="0" allow="pedestrian delivery bicycle" speed="5.56" length="10.31" shape="4699.78,5529.29 4702.22,5529.31 4704.33,5530.21 4706.13,5531.98 4707.62,5534.64"/>
    </edge>
    <edge id=":10277605060_8" function="internal">
        <lane id=":10277605060_8_0" index="0" allow="pedestrian delivery bicycle" speed="3.65" length="4.67" shape="4699.78,5529.29 4701.09,5529.88 4701.62,5530.61 4701.35,5531.46 4700.29,5532.44"/>
    </edge>
    <edge id=":10300754576_0" function="internal">
        <lane id=":10300754576_0_0" index="0" disallow="tram rail_urban rail rail_electric rail_fast ship" speed="22.22" length="14.40" shape="3911.09,5641.89 3908.90,5627.65"/>
    </edge>
    <edge id=":10300754576_1" function="internal">
        <lane id=":10300754576_1_0" index="0" disallow="tram rail_urban rail rail_electric rail_fast ship" speed="8.06" length="5.90" shape="3911.09,5641.89 3911.05,5638.03 3911.82,5636.14"/>
    </edge>
    <edge id=":10300754576_2" function="internal">
        <lane id=":10300754576_2_0" index="0" disallow="tram rail_urban rail rail_electric rail_fast ship" speed="3.65" length="2.34" shape="3911.09,5641.89 3911.70,5640.58 3912.43,5640.06"/>
    </edge>
    <edge id=":10300754576_9" function="internal">
        <lane id=":10300754576_9_0" index="0" disallow="tram rail_urban rail rail_electric rail_fast ship" speed="8.06" length="8.32" shape="3911.82,5636.14 3912.27,5635.05 3914.74,5632.97 3918.46,5631.78"/>
    </edge>
    <edge id=":10300754576_10" function="internal">
        <lane id=":10300754576_10_0" index="0" disallow="tram rail_urban rail rail_electric rail_fast ship" speed="3.65" length="2.34" shape="3912.43,5640.06 3913.28,5640.34 3914.25,5641.40"/>
    </edge>
    <edge id=":10300754576_3" function="internal">
        <lane id=":10300754576_3_0" index="0" disallow="tram rail_urban rail rail_electric rail_fast ship" speed="6.58" length="9.12" shape="3919.00,5634.93 3916.61,5635.70 3915.01,5637.03 3914.23,5638.93 3914.25,5641.40"/>
    </edge>
    <edge id=":10300754576_4" function="internal">
        <lane id=":10300754576_4_0" index="0" disallow="tram rail_urban rail rail_electric rail_fast ship" speed="7.97" length="14.26" shape="3919.00,5634.93 3915.09,5635.04 3912.10,5633.86 3910.03,5631.40 3908.90,5627.65"/>
    </edge>
    <edge id=":10300754576_5" function="internal">
        <lane id=":10300754576_5_0" index="0" disallow="tram rail_urban rail rail_electric rail_fast ship" speed="3.65" length="4.67" shape="3919.00,5634.93 3917.69,5634.34 3917.16,5633.62 3917.41,5632.77 3918.46,5631.78"/>
    </edge>
    <edge id=":10300754576_6" function="internal">
        <lane id=":10300754576_6_0" index="0" disallow="tram rail_urban rail rail_electric rail_fast ship" speed="6.47" length="9.03" shape="3912.06,5627.17 3912.78,5629.54 3914.09,5631.10 3915.98,5631.85 3918.46,5631.78"/>
    </edge>
    <edge id=":10300754576_7" function="internal">
        <lane id=":10300754576_7_0" index="0" disallow="tram rail_urban rail rail_electric rail_fast ship" speed="22.22" length="14.40" shape="3912.06,5627.17 3914.25,5641.40"/>
    </edge>
    <edge id=":10300754576_8" function="internal">
        <lane id=":10300754576_8_0" index="0" disallow="tram rail_urban rail rail_electric rail_fast ship" speed="3.65" length="2.34" shape="3912.06,5627.17 3911.45,5628.48 3910.72,5628.99"/>
    </edge>
    <edge id=":10300754576_11" function="internal">
        <lane id=":10300754576_11_0" index="0" disallow="tram rail_urban rail rail_electric rail_fast ship" speed="3.65" length="2.34" shape="3910.72,5628.99 3909.87,5628.72 3908.90,5627.65"/>
    </edge>
    <edge id=":10300754582_0" function="internal">
        <lane id=":10300754582_0_0" index="0" allow="pedestrian delivery bicycle" speed="4.89" length="5.20" shape="4035.14,5550.40 4034.14,5549.33 4033.08,5548.91 4031.96,5549.12 4030.78,5549.97"/>
    </edge>
    <edge id=":10300754582_1" function="internal">
        <lane id=":10300754582_1_0" index="0" disallow="tram rail_urban rail rail_electric rail_fast ship" speed="13.89" length="9.18" shape="4035.14,5550.40 4033.56,5548.17 4032.54,5546.60 4031.75,5544.91 4030.87,5542.34"/>
    </edge>
    <edge id=":10300754582_2" function="internal">
        <lane id=":10300754582_2_0" index="0" disallow="tram rail_urban rail rail_electric rail_fast ship" speed="3.65" length="2.34" shape="4035.14,5550.40 4035.11,5548.95 4035.53,5548.17"/>
    </edge>
    <edge id=":10300754582_9" function="internal">
        <lane id=":10300754582_9_0" index="0" disallow="tram rail_urban rail rail_electric rail_fast ship" speed="3.65" length="2.34" shape="4035.53,5548.17 4036.42,5548.04 4037.76,5548.56"/>
    </edge>
    <edge id=":10300754582_3" function="internal">
        <lane id=":10300754582_3_0" index="0" disallow="tram rail_urban rail rail_electric rail_fast ship" speed="13.89" length="8.21" shape="4033.92,5541.38 4034.71,5543.67 4035.43,5545.18 4036.35,5546.58 4037.76,5548.56"/>
    </edge>
    <edge id=":10300754582_4" function="internal">
        <lane id=":10300754582_4_0" index="0" allow="pedestrian delivery bicycle" speed="8.19" length="4.35" shape="4033.92,5541.38 4034.23,5543.52 4033.81,5545.66"/>
    </edge>
    <edge id=":10300754582_5" function="internal">
        <lane id=":10300754582_5_0" index="0" disallow="tram rail_urban rail rail_electric rail_fast ship" speed="3.65" length="2.34" shape="4033.92,5541.38 4033.52,5542.76 4032.88,5543.39"/>
    </edge>
    <edge id=":10300754582_10" function="internal">
        <lane id=":10300754582_10_0" index="0" allow="pedestrian delivery bicycle" speed="8.19" length="5.30" shape="4033.81,5545.66 4032.66,5547.81 4030.78,5549.97"/>
    </edge>
    <edge id=":10300754582_11" function="internal">
        <lane id=":10300754582_11_0" index="0" disallow="tram rail_urban rail rail_electric rail_fast ship" speed="3.65" length="2.34" shape="4032.88,5543.39 4031.99,5543.25 4030.87,5542.34"/>
    </edge>
    <edge id=":10300754582_6" function="internal">
        <lane id=":10300754582_6_0" index="0" disallow="tram rail_urban rail rail_electric rail_fast ship" speed="6.63" length="6.10" shape="4028.56,5547.67 4029.85,5546.23 4030.67,5544.86 4031.01,5543.57 4030.87,5542.34"/>
    </edge>
    <edge id=":10300754582_7" function="internal">
        <lane id=":10300754582_7_0" index="0" disallow="tram rail_urban rail rail_electric rail_fast ship" speed="6.75" length="10.97" shape="4028.56,5547.67 4031.05,5545.87 4033.42,5545.42 4035.66,5546.32 4037.76,5548.56"/>
    </edge>
    <edge id=":10300754582_8" function="internal">
        <lane id=":10300754582_8_0" index="0" allow="pedestrian delivery bicycle" speed="3.65" length="4.67" shape="4028.56,5547.67 4029.98,5547.41 4030.82,5547.71 4031.09,5548.57 4030.78,5549.97"/>
    </edge>
    <edge id=":10300754583_0" function="internal">
        <lane id=":10300754583_0_0" index="0" allow="pedestrian delivery bicycle" speed="5.66" length="5.86" shape="4028.91,5536.12 4028.28,5534.96 4027.25,5534.22 4025.83,5533.91 4024.01,5534.03"/>
    </edge>
    <edge id=":10300754583_1" function="internal">
        <lane id=":10300754583_1_0" index="0" disallow="tram rail_urban rail rail_electric rail_fast ship" speed="13.89" length="9.61" shape="4028.91,5536.12 4025.67,5527.07"/>
    </edge>
    <edge id=":10300754583_2" function="internal">
        <lane id=":10300754583_2_0" index="0" disallow="tram rail_urban rail rail_electric rail_fast ship" speed="3.65" length="2.34" shape="4028.91,5536.12 4029.31,5534.74 4029.95,5534.12"/>
    </edge>
    <edge id=":10300754583_9" function="internal">
        <lane id=":10300754583_9_0" index="0" disallow="tram rail_urban rail rail_electric rail_fast ship" speed="3.65" length="2.34" shape="4029.95,5534.12 4030.83,5534.26 4031.96,5535.16"/>
    </edge>
    <edge id=":10300754583_3" function="internal">
        <lane id=":10300754583_3_0" index="0" disallow="tram rail_urban rail rail_electric rail_fast ship" speed="13.89" length="9.82" shape="4028.66,5525.91 4031.96,5535.16"/>
    </edge>
    <edge id=":10300754583_4" function="internal">
        <lane id=":10300754583_4_0" index="0" allow="pedestrian delivery bicycle" speed="6.72" length="5.51" shape="4028.66,5525.91 4029.38,5529.01 4028.88,5531.27"/>
    </edge>
    <edge id=":10300754583_5" function="internal">
        <lane id=":10300754583_5_0" index="0" disallow="tram rail_urban rail rail_electric rail_fast ship" speed="3.65" length="2.34" shape="4028.66,5525.91 4028.35,5527.31 4027.75,5527.98"/>
    </edge>
    <edge id=":10300754583_10" function="internal">
        <lane id=":10300754583_10_0" index="0" allow="pedestrian delivery bicycle" speed="6.72" length="5.77" shape="4028.88,5531.27 4028.85,5531.40 4027.06,5533.07 4024.01,5534.03"/>
    </edge>
    <edge id=":10300754583_11" function="internal">
        <lane id=":10300754583_11_0" index="0" disallow="tram rail_urban rail rail_electric rail_fast ship" speed="3.65" length="2.34" shape="4027.75,5527.98 4026.86,5527.90 4025.67,5527.07"/>
    </edge>
    <edge id=":10300754583_6" function="internal">
        <lane id=":10300754583_6_0" index="0" disallow="tram rail_urban rail rail_electric rail_fast ship" speed="4.85" length="5.27" shape="4023.50,5530.87 4024.93,5530.42 4025.76,5529.64 4026.01,5528.52 4025.67,5527.07"/>
    </edge>
    <edge id=":10300754583_7" function="internal">
        <lane id=":10300754583_7_0" index="0" disallow="tram rail_urban rail rail_electric rail_fast ship" speed="7.34" length="10.48" shape="4023.50,5530.87 4026.56,5530.72 4028.99,5531.39 4030.79,5532.87 4031.96,5535.16"/>
    </edge>
    <edge id=":10300754583_8" function="internal">
        <lane id=":10300754583_8_0" index="0" allow="pedestrian delivery bicycle" speed="3.65" length="4.67" shape="4023.50,5530.87 4024.82,5531.46 4025.34,5532.19 4025.07,5533.04 4024.01,5534.03"/>
    </edge>
    <edge id=":10300754588_0" function="internal">
        <lane id=":10300754588_0_0" index="0" disallow="tram rail_urban rail rail_electric rail_fast ship" speed="22.22" length="14.58" shape="3882.76,5516.47 3878.08,5502.65"/>
    </edge>
    <edge id=":10300754588_1" function="internal">
        <lane id=":10300754588_1_0" index="0" disallow="tram rail_urban rail rail_electric rail_fast ship" speed="7.59" length="6.04" shape="3882.76,5516.47 3881.98,5512.12 3882.45,5510.56"/>
    </edge>
    <edge id=":10300754588_2" function="internal">
        <lane id=":10300754588_2_0" index="0" disallow="tram rail_urban rail rail_electric rail_fast ship" speed="3.65" length="2.34" shape="3882.76,5516.47 3883.14,5515.08 3883.78,5514.45"/>
    </edge>
    <edge id=":10300754588_9" function="internal">
        <lane id=":10300754588_9_0" index="0" disallow="tram rail_urban rail rail_electric rail_fast ship" speed="7.59" length="9.36" shape="3882.45,5510.56 3882.92,5508.97 3885.55,5507.01 3889.89,5506.23"/>
    </edge>
    <edge id=":10300754588_10" function="internal">
        <lane id=":10300754588_10_0" index="0" disallow="tram rail_urban rail rail_electric rail_fast ship" speed="3.65" length="2.34" shape="3883.78,5514.45 3884.66,5514.58 3885.80,5515.47"/>
    </edge>
    <edge id=":10300754588_3" function="internal">
        <lane id=":10300754588_3_0" index="0" disallow="tram rail_urban rail rail_electric rail_fast ship" speed="5.98" length="9.08" shape="3890.01,5509.43 3887.45,5509.88 3885.89,5511.04 3885.34,5512.90 3885.80,5515.47"/>
    </edge>
    <edge id=":10300754588_4" function="internal">
        <lane id=":10300754588_4_0" index="0" disallow="tram rail_urban rail rail_electric rail_fast ship" speed="9.23" length="14.78" shape="3890.01,5509.43 3885.72,5509.13 3882.31,5507.90 3879.76,5505.74 3878.08,5502.65"/>
    </edge>
    <edge id=":10300754588_5" function="internal">
        <lane id=":10300754588_5_0" index="0" disallow="tram rail_urban rail rail_electric rail_fast ship" speed="3.65" length="4.67" shape="3890.01,5509.43 3888.78,5508.67 3888.35,5507.88 3888.72,5507.07 3889.89,5506.23"/>
    </edge>
    <edge id=":10300754588_6" function="internal">
        <lane id=":10300754588_6_0" index="0" disallow="tram rail_urban rail rail_electric rail_fast ship" speed="7.93" length="10.69" shape="3881.10,5501.59 3882.29,5503.72 3884.15,5505.19 3886.69,5506.03 3889.89,5506.23"/>
    </edge>
    <edge id=":10300754588_7" function="internal">
        <lane id=":10300754588_7_0" index="0" disallow="tram rail_urban rail rail_electric rail_fast ship" speed="22.22" length="14.65" shape="3881.10,5501.59 3885.80,5515.47"/>
    </edge>
    <edge id=":10300754588_8" function="internal">
        <lane id=":10300754588_8_0" index="0" disallow="tram rail_urban rail rail_electric rail_fast ship" speed="3.65" length="2.34" shape="3881.10,5501.59 3880.74,5502.99 3880.12,5503.63"/>
    </edge>
    <edge id=":10300754588_11" function="internal">
        <lane id=":10300754588_11_0" index="0" disallow="tram rail_urban rail rail_electric rail_fast ship" speed="3.65" length="2.34" shape="3880.12,5503.63 3879.23,5503.52 3878.08,5502.65"/>
    </edge>
    <edge id=":10300754589_0" function="internal">
        <lane id=":10300754589_0_0" index="0" allow="pedestrian delivery bicycle" speed="3.65" length="4.67" shape="3991.56,5558.97 3990.25,5558.38 3989.72,5557.65 3989.98,5556.80 3991.04,5555.81"/>
    </edge>
    <edge id=":10300754590_0" function="internal">
        <lane id=":10300754590_0_0" index="0" allow="pedestrian delivery bicycle" speed="3.65" length="4.67" shape="3986.97,5540.02 3985.66,5539.42 3985.14,5538.69 3985.41,5537.84 3986.46,5536.86"/>
    </edge>
    <edge id=":10300754591_0" function="internal">
        <lane id=":10300754591_0_0" index="0" disallow="tram rail_urban rail rail_electric rail_fast ship" speed="3.65" length="4.67" shape="4073.67,5633.28 4074.91,5634.03 4075.34,5634.81 4074.98,5635.63 4073.82,5636.48"/>
    </edge>
    <edge id=":10300754596_0" function="internal">
        <lane id=":10300754596_0_0" index="0" allow="pedestrian delivery bicycle" speed="3.65" length="4.67" shape="3521.83,5568.31 3520.54,5567.67 3520.04,5566.93 3520.33,5566.08 3521.42,5565.13"/>
    </edge>
    <edge id=":10300754607_0" function="internal">
        <lane id=":10300754607_0_0" index="0" allow="pedestrian delivery bicycle" speed="5.56" length="5.79" shape="3741.50,5526.54 3740.99,5525.33 3740.06,5524.49 3738.70,5524.00 3736.92,5523.88"/>
    </edge>
    <edge id=":10300754607_1" function="internal">
        <lane id=":10300754607_1_0" index="0" allow="pedestrian delivery bicycle" speed="5.56" length="9.50" shape="3741.50,5526.54 3739.53,5517.24"/>
    </edge>
    <edge id=":10300754607_2" function="internal">
        <lane id=":10300754607_2_0" index="0" allow="pedestrian delivery bicycle" speed="3.65" length="4.67" shape="3741.50,5526.54 3742.03,5525.20 3742.73,5524.64 3743.60,5524.87 3744.63,5525.88"/>
    </edge>
    <edge id=":10300754607_3" function="internal">
        <lane id=":10300754607_3_0" index="0" allow="pedestrian delivery bicycle" speed="5.56" length="9.50" shape="3742.66,5516.58 3744.63,5525.88"/>
    </edge>
    <edge id=":10300754607_4" function="internal">
        <lane id=":10300754607_4_0" index="0" allow="pedestrian delivery bicycle" speed="5.56" length="11.08" shape="3742.66,5516.58 3742.87,5519.69 3741.98,5521.95 3740.00,5523.34 3736.92,5523.88"/>
    </edge>
    <edge id=":10300754607_5" function="internal">
        <lane id=":10300754607_5_0" index="0" allow="pedestrian delivery bicycle" speed="3.65" length="4.67" shape="3742.66,5516.58 3742.13,5517.92 3741.43,5518.48 3740.56,5518.25 3739.53,5517.24"/>
    </edge>
    <edge id=":10300754607_6" function="internal">
        <lane id=":10300754607_6_0" index="0" allow="pedestrian delivery bicycle" speed="4.87" length="5.23" shape="3736.83,5520.68 3738.27,5520.43 3739.21,5519.77 3739.63,5518.71 3739.53,5517.24"/>
    </edge>
    <edge id=":10300754607_7" function="internal">
        <lane id=":10300754607_7_0" index="0" allow="pedestrian delivery bicycle" speed="5.56" length="10.30" shape="3736.83,5520.68 3739.81,5520.93 3742.11,5521.88 3743.71,5523.53 3744.63,5525.88"/>
    </edge>
    <edge id=":10300754607_8" function="internal">
        <lane id=":10300754607_8_0" index="0" allow="pedestrian delivery bicycle" speed="3.65" length="4.67" shape="3736.83,5520.68 3738.05,5521.45 3738.47,5522.23 3738.10,5523.05 3736.92,5523.88"/>
    </edge>
    <edge id=":10300765143_0" function="internal">
        <lane id=":10300765143_0_0" index="0" disallow="tram rail_urban rail rail_electric rail_fast ship" speed="6.02" length="9.07" shape="2054.99,2546.57 2053.47,2544.47 2051.75,2543.56 2049.82,2543.84 2047.68,2545.30"/>
    </edge>
    <edge id=":10300765143_1" function="internal">
        <lane id=":10300765143_1_0" index="0" disallow="tram rail_urban rail rail_electric rail_fast ship" speed="9.02" length="14.72" shape="2054.99,2546.57 2053.43,2542.61 2053.13,2539.04 2054.09,2535.86 2056.30,2533.06"/>
    </edge>
    <edge id=":10300765143_2" function="internal">
        <lane id=":10300765143_2_0" index="0" disallow="tram rail_urban rail rail_electric rail_fast ship" speed="3.65" length="4.67" shape="2054.99,2546.57 2055.14,2545.13 2055.66,2544.41 2056.56,2544.39 2057.82,2545.08"/>
    </edge>
    <edge id=":10300765143_3" function="internal">
        <lane id=":10300765143_3_0" index="0" disallow="tram rail_urban rail rail_electric rail_fast ship" speed="7.69" length="10.48" shape="2058.46,2535.42 2056.97,2537.35 2056.37,2539.61 2056.65,2542.18 2057.82,2545.08"/>
    </edge>
    <edge id=":10300765143_4" function="internal">
        <lane id=":10300765143_4_0" index="0" disallow="tram rail_urban rail rail_electric rail_fast ship" speed="22.22" length="14.62" shape="2058.46,2535.42 2047.68,2545.30"/>
    </edge>
    <edge id=":10300765143_5" function="internal">
        <lane id=":10300765143_5_0" index="0" disallow="tram rail_urban rail rail_electric rail_fast ship" speed="3.65" length="2.34" shape="2058.46,2535.42 2057.03,2535.65 2056.20,2535.33"/>
    </edge>
    <edge id=":10300765143_9" function="internal">
        <lane id=":10300765143_9_0" index="0" disallow="tram rail_urban rail rail_electric rail_fast ship" speed="3.65" length="2.34" shape="2056.20,2535.33 2055.95,2534.47 2056.30,2533.06"/>
    </edge>
    <edge id=":10300765143_6" function="internal">
        <lane id=":10300765143_6_0" index="0" disallow="tram rail_urban rail rail_electric rail_fast ship" speed="22.22" length="14.62" shape="2045.52,2542.94 2056.30,2533.06"/>
    </edge>
    <edge id=":10300765143_7" function="internal">
        <lane id=":10300765143_7_0" index="0" disallow="tram rail_urban rail rail_electric rail_fast ship" speed="7.62" length="6.09" shape="2045.52,2542.94 2049.12,2540.48 2050.84,2540.24"/>
    </edge>
    <edge id=":10300765143_8" function="internal">
        <lane id=":10300765143_8_0" index="0" disallow="tram rail_urban rail rail_electric rail_fast ship" speed="3.65" length="2.34" shape="2045.52,2542.94 2046.95,2542.72 2047.78,2543.04"/>
    </edge>
    <edge id=":10300765143_10" function="internal">