<?xml version="1.0" encoding="UTF-8"?>

<!-- generated on 01/13/25 01:33:09 by Eclipse SUMO polyconvert Version 1.3.1
<configuration xmlns:xsi="http://www.w3.org/2001/XMLSchema-instance" xsi:noNamespaceSchemaLocation="http://sumo.dlr.de/xsd/polyconvertConfiguration.xsd">

    <input>
        <net-file value="erlangen.net.xml"/>
        <osm-files value="erlangen.osm"/>
    </input>

    <output>
        <output-file value="erlangen.poly.xml"/>
    </output>

    <processing>
        <poi-layer-offset value="5"/>
    </processing>

</configuration>
-->

<additional xmlns:xsi="http://www.w3.org/2001/XMLSchema-instance" xsi:noNamespaceSchemaLocation="http://sumo.dlr.de/xsd/additional_file.xsd">
    <location netOffset="-218251.83,-2526611.57" convBoundary="-781.59,-1564.49,11182.09,11268.84" origBoundary="120.247119,22.810547,120.362034,22.926631" projParameter="+proj=utm +zone=51 +ellps=WGS84 +datum=WGS84 +units=m +no_defs"/>

    <poly id="1050698948" type="building" color="255,230,230" fill="1" layer="-1.00" shape="4697.409333,6184.632691 5095.521067,6141.320388 5087.288709,6066.345352 5023.523924,6073.275821 5021.466713,6054.584685 4845.288943,6073.759744 4836.527235,5994.062317 4678.365051,6011.268924 4697.409333,6184.632691"/>
    <poly id="1050698949" type="building" color="255,230,230" fill="1" layer="-1.00" shape="4418.842127,6207.042964 4430.293042,6324.592167 4445.115234,6323.167536 4433.295296,6205.647275 4418.842127,6207.042964"/>
    <poly id="1050698950" type="building" color="255,230,230" fill="1" layer="-1.00" shape="4418.697688,6060.439276 4433.295296,6205.647275 4445.115234,6323.167536 4501.455183,6317.933321 4475.011188,6054.828773 4418.697688,6060.439276"/>
    <poly id="1050698951" type="building" color="255,230,230" fill="1" layer="-1.00" shape="4372.009452,6330.228052 4430.293042,6324.592167 4418.842127,6207.042964 4410.616856,6122.570316 4352.322210,6128.206384 4372.009452,6330.228052"/>
    <poly id="1050698952" type="building" color="255,230,230" fill="1" layer="-1.00" shape="4254.165403,6347.452948 4320.419835,6341.393160 4311.649040,6246.258347 4245.404247,6252.306863 4254.165403,6347.452948"/>
    <poly id="1050698953" type="building" color="255,230,230" fill="1" layer="-1.00" shape="4158.900037,6356.184951 4209.800814,6351.127146 4200.359051,6256.957709 4149.457952,6262.015513 4158.900037,6356.184951"/>
    <poly id="1050698954" type="building" color="255,230,230" fill="1" layer="-1.00" shape="4115.885112,6361.219908 4147.854528,6358.050251 4138.404841,6263.470908 4106.435221,6266.640565 4115.885112,6361.219908"/>
    <poly id="1050698955" type="building" color="255,230,230" fill="1" layer="-1.00" shape="3980.219095,6275.344040 3984.137963,6313.117819 4037.649384,6307.623569 4037.050554,6301.860735 4096.086375,6295.799693 4092.766599,6263.788748 3980.219095,6275.344040"/>
    <poly id="1050698956" type="building" color="255,230,230" fill="1" layer="-1.00" shape="3982.397617,6182.157809 3988.600206,6238.585327 4082.862859,6228.330333 4076.670892,6171.902624 3982.397617,6182.157809"/>
    <poly id="1050698957" type="building" color="255,230,230" fill="1" layer="-1.00" shape="3868.952133,6143.250754 3874.833264,6240.799312 3917.760526,6238.236656 3911.869206,6140.677220 3868.952133,6143.250754"/>
    <poly id="1050698958" type="building" color="255,230,230" fill="1" layer="-1.00" shape="3805.403823,6169.753724 3836.492535,6167.807619 3835.088008,6145.602470 3803.999045,6147.537494 3805.403823,6169.753724"/>
    <poly id="1050698959" type="building" color="255,230,230" fill="1" layer="-1.00" shape="3794.414104,6186.379800 3796.926209,6224.689250 3852.772623,6221.068648 3850.260457,6182.748124 3794.414104,6186.379800"/>
    <poly id="1050698960" type="building" color="255,230,230" fill="1" layer="-1.00" shape="3690.526377,6303.037188 3787.644020,6297.282542 3778.833478,6149.939876 3681.715082,6155.705559 3690.526377,6303.037188"/>
    <poly id="1050698961" type="building" color="255,230,230" fill="1" layer="-1.00" shape="3946.359771,5836.733333 3994.472978,5831.881414 3992.005111,5807.678864 3965.172712,5809.934188 3943.891826,5812.530784 3946.359771,5836.733333"/>
    <poly id="1050698962" type="building" color="255,230,230" fill="1" layer="-1.00" shape="4006.127521,5949.160958 4023.055927,5947.774815 4014.019053,5838.260129 3997.090319,5839.635190 4006.127521,5949.160958"/>
    <poly id="1050698963" type="building" color="255,230,230" fill="1" layer="-1.00" shape="3965.207465,5899.522297 3966.188208,5914.886404 3982.906986,5913.825459 3981.915996,5898.461542 3965.207465,5899.522297"/>
    <poly id="1050698964" type="building" color="255,230,230" fill="1" layer="-1.00" shape="3936.134874,5894.981139 3936.553115,5900.414826 3966.527389,5898.146000 3966.119629,5892.723203 3936.134874,5894.981139"/>
    <poly id="1050698965" type="building" color="255,230,230" fill="1" layer="-1.00" shape="3938.033798,5870.919945 3938.471550,5876.297861 3958.343371,5874.702387 3957.905627,5869.324471 3938.033798,5870.919945"/>
    <poly id="1050698966" type="building" color="255,230,230" fill="1" layer="-1.00" shape="3935.413816,5855.763292 3935.784680,5860.854300 3963.504503,5858.837490 3963.123384,5853.746670 3935.413816,5855.763292"/>
    <poly id="1050698967" type="building" color="255,230,230" fill="1" layer="-1.00" shape="4216.645951,5837.728782 4217.986535,5853.130592 4228.023786,5852.259143 4226.683212,5836.857333 4216.645951,5837.728782"/>
    <poly id="1050698982" type="building" color="255,230,230" fill="1" layer="-1.00" shape="4708.541264,5494.652524 4736.292807,5492.093615 4737.036454,5500.169958 4747.031851,5499.244241 4740.108083,5424.599847 4702.371032,5428.073205 4708.541264,5494.652524"/>
    <poly id="1050698985" type="building" color="255,230,230" fill="1" layer="-1.00" shape="4739.336688,5793.151140 4741.742051,5793.284359 4743.858338,5794.453519 4745.249933,5796.422797 4745.642418,5798.787184 4744.965877,5801.093594 4743.345433,5802.885363 4741.113143,5803.790694 4738.697313,5803.646585 4736.591292,5802.477238 4735.199900,5800.519039 4734.807209,5798.143573 4735.483952,5795.848241 4737.094131,5794.056659 4739.336688,5793.151140"/>
    <poly id="1050698986" type="building" color="255,230,230" fill="1" layer="-1.00" shape="4739.708775,5781.519133 4742.114344,5781.663431 4744.230632,5782.832590 4745.611759,5784.790979 4746.014713,5787.166256 4745.338171,5789.472665 4743.717522,5791.253356 4741.485434,5792.169765 4739.069602,5792.025656 4736.963579,5790.856308 4735.571983,5788.887031 4735.179496,5786.522644 4735.856037,5784.216234 4737.466420,5782.435730 4739.708775,5781.519133"/>
    <poly id="1050698987" type="building" color="255,230,230" fill="1" layer="-1.00" shape="4752.283175,5767.801636 4754.688745,5767.945936 4756.805035,5769.115098 4758.186364,5771.084565 4758.589113,5773.448764 4757.912568,5775.755173 4756.292119,5777.546940 4754.059825,5778.452269 4751.643991,5778.308157 4749.537968,5777.138808 4748.146576,5775.180608 4747.753887,5772.805142 4748.430431,5770.498733 4750.040817,5768.718231 4752.283175,5767.801636"/>
    <poly id="1050698988" type="building" color="255,230,230" fill="1" layer="-1.00" shape="4751.970324,5779.864760 4754.386157,5780.008871 4756.492180,5781.178221 4757.883773,5783.147500 4758.276257,5785.511888 4757.599713,5787.818296 4755.989328,5789.598797 4753.757239,5790.515204 4751.341407,5790.371093 4749.235385,5789.201744 4747.843994,5787.243544 4747.441040,5784.868266 4748.117583,5782.561857 4749.738233,5780.781167 4751.970324,5779.864760"/>
    <poly id="1050698989" type="building" color="255,230,230" fill="1" layer="-1.00" shape="4751.706973,5791.827237 4754.112539,5791.971536 4756.228826,5793.140698 4757.620215,5795.098899 4758.012699,5797.463286 4757.336156,5799.769694 4755.715710,5801.561462 4753.483420,5802.466791 4751.067793,5802.333759 4748.961772,5801.164410 4747.570179,5799.195131 4747.177694,5796.830744 4747.854236,5794.524335 4749.464416,5792.732754 4751.706973,5791.827237"/>
    <poly id="1050698990" type="building" color="255,230,230" fill="1" layer="-1.00" shape="4751.393922,5803.879283 4753.809752,5804.023394 4755.915771,5805.192743 4757.307363,5807.162022 4757.710112,5809.526221 4757.023304,5811.832818 4755.413125,5813.624398 4753.180837,5814.529727 4750.765009,5814.385617 4748.658990,5813.216268 4747.267601,5811.258068 4746.864647,5808.882790 4747.541188,5806.576381 4749.161835,5804.795691 4751.393922,5803.879283"/>
    <poly id="1050698993" type="building" color="255,230,230" fill="1" layer="-1.00" shape="4786.181780,5666.443485 4788.646002,5666.985675 4790.775815,5668.331909 4792.311536,5670.320715 4793.074182,5672.711565 4792.966087,5675.218113 4792.012361,5677.529598 4790.310991,5679.389336 4788.073085,5680.549650 4785.563312,5680.883785 4783.099092,5680.341596 4780.969279,5678.995363 4779.433558,5677.006558 4778.670909,5674.615709 4778.779002,5672.109161 4779.742789,5669.786408 4781.444362,5667.937747 4783.682270,5666.777432 4786.181780,5666.443485"/>
    <poly id="1050698997" type="building" color="255,230,230" fill="1" layer="-1.00" shape="4785.480373,5685.883357 4787.944592,5686.425547 4790.074200,5687.760702 4791.609919,5689.749508 4792.372768,5692.151436 4792.274939,5694.657796 4791.310950,5696.969470 4789.609582,5698.829208 4787.371679,5699.989522 4784.872175,5700.323470 4782.397692,5699.781469 4780.267882,5698.435237 4778.732163,5696.446432 4777.969514,5694.055583 4778.077606,5691.549035 4779.041391,5689.226281 4780.742962,5687.377620 4782.980867,5686.217305 4785.480373,5685.883357"/>
    <poly id="1050700456" type="building" color="255,230,230" fill="1" layer="-1.00" shape="1995.869654,2636.452363 2010.564818,2671.289605 2025.802243,2665.455654 2011.107112,2630.618401 1995.869654,2636.452363"/>
    <poly id="1050700457" type="building" color="255,230,230" fill="1" layer="-1.00" shape="1886.738965,2617.114620 1890.392429,2632.495874 1900.680645,2630.078043 1897.016924,2614.696978 1886.738965,2617.114620"/>
    <poly id="1050700458" type="building" color="255,230,230" fill="1" layer="-1.00" shape="1874.750211,2563.686597 1879.545266,2579.146478 1936.679284,2561.632577 1931.894351,2546.161415 1874.750211,2563.686597"/>
    <poly id="1050706557" type="building" color="255,230,230" fill="1" layer="-1.00" shape="2005.066175,4959.314701 2006.888876,4972.901231 2015.381509,4971.768817 2013.569288,4958.193175 2005.066175,4959.314701"/>
    <poly id="1050706558" type="building" color="255,230,230" fill="1" layer="-1.00" shape="2064.149705,4961.634784 2064.269105,4971.418324 2074.865044,4971.288772 2074.745651,4961.505234 2064.149705,4961.634784"/>
    <poly id="1050706859" type="building" color="255,230,230" fill="1" layer="-1.00" shape="2637.024643,2035.654694 2651.009832,2050.435477 2700.023326,2004.604155 2686.048423,1989.823139 2637.024643,2035.654694"/>
    <poly id="1050706860" type="building" color="255,230,230" fill="1" layer="-1.00" shape="2588.416060,2125.143050 2555.803433,2147.953548 2624.808733,2245.468376 2657.421216,2222.658013 2588.416060,2125.143050"/>
    <poly id="1050706861" type="building" color="255,230,230" fill="1" layer="-1.00" shape="2611.321805,2099.530517 2688.749719,2209.867636 2722.664011,2186.346330 2645.236065,2075.997975 2611.321805,2099.530517"/>
    <poly id="1050706862" type="building" color="255,230,230" fill="1" layer="-1.00" shape="2631.983592,2258.568315 2659.489164,2298.034903 2753.359129,2233.356717 2725.853729,2193.889974 2631.983592,2258.568315"/>
    <poly id="1050723555" type="building" color="255,230,230" fill="1" layer="-1.00" shape="2153.648276,5172.505950 2153.788678,5191.199333 2161.890219,5191.138130 2161.749828,5172.444748 2153.648276,5172.505950"/>
    <poly id="1050723556" type="building" color="255,230,230" fill="1" layer="-1.00" shape="2149.058910,5185.335586 2148.754990,5168.906033 2140.983589,5169.049793 2141.287518,5185.479346 2149.058910,5185.335586"/>
    <poly id="1050723557" type="building" color="255,230,230" fill="1" layer="-1.00" shape="2159.983104,5276.241779 2167.741770,5298.174365 2173.169858,5296.267528 2165.411200,5274.334941 2159.983104,5276.241779"/>
    <poly id="1050723558" type="building" color="255,230,230" fill="1" layer="-1.00" shape="2163.486890,5299.660536 2167.741770,5298.174365 2159.983104,5276.241779 2155.728219,5277.727952 2163.486890,5299.660536"/>
    <poly id="1050723559" type="building" color="255,230,230" fill="1" layer="-1.00" shape="2041.738624,5289.478731 2041.297348,5298.929098 2048.101621,5299.246472 2048.542697,5289.785027 2041.738624,5289.478731"/>
    <poly id="1050723560" type="building" color="255,230,230" fill="1" layer="-1.00" shape="2033.202475,5297.128406 2039.001300,5297.497631 2039.614431,5287.900013 2033.815603,5287.530787 2033.202475,5297.128406"/>
    <poly id="1050723561" type="building" color="255,230,230" fill="1" layer="-1.00" shape="1944.578170,5247.834114 1942.677068,5259.971292 1953.326160,5261.613831 1955.217004,5249.476845 1944.578170,5247.834114"/>
    <poly id="1050723566" type="building" color="255,230,230" fill="1" layer="-1.00" shape="1950.765092,5179.850953 1952.707814,5171.625096 1943.579895,5169.500011 1941.647648,5177.736758 1950.765092,5179.850953"/>
    <poly id="1050723567" type="building" color="255,230,230" fill="1" layer="-1.00" shape="1934.687890,5207.300461 1943.805523,5209.425728 1950.765092,5179.850953 1941.647648,5177.736758 1934.687890,5207.300461"/>
    <poly id="1050723568" type="building" color="255,230,230" fill="1" layer="-1.00" shape="2052.655687,5170.750511 2063.358826,5179.196721 2073.787053,5166.126023 2063.094179,5157.679615 2052.655687,5170.750511"/>
    <poly id="1050723569" type="building" color="255,230,230" fill="1" layer="-1.00" shape="1943.590218,5119.019483 1951.742875,5121.716744 1958.194526,5102.424768 1950.052127,5099.727312 1943.590218,5119.019483"/>
    <poly id="1050723570" type="building" color="255,230,230" fill="1" layer="-1.00" shape="1929.934973,5114.207610 1938.782859,5116.736841 1944.149969,5098.218537 1935.302073,5095.689302 1929.934973,5114.207610"/>
    <poly id="1050723594" type="building" color="255,230,230" fill="1" layer="-1.00" shape="2885.981316,5019.583612 2886.737584,5033.300649 2910.580038,5031.996390 2909.813526,5018.279544 2885.981316,5019.583612"/>
    <poly id="1050723595" type="building" color="255,230,230" fill="1" layer="-1.00" shape="2666.266155,5093.169177 2670.723790,5091.535347 2666.497845,5080.132073 2662.040208,5081.765904 2666.266155,5093.169177"/>
    <poly id="1050723596" type="building" color="255,230,230" fill="1" layer="-1.00" shape="2657.317494,5083.504371 2661.543445,5094.907644 2666.266155,5093.169177 2662.040208,5081.765904 2657.317494,5083.504371"/>
    <poly id="1050723597" type="building" color="255,230,230" fill="1" layer="-1.00" shape="2587.747309,5082.727763 2593.271145,5081.550759 2591.990940,5075.623184 2586.467102,5076.800188 2587.747309,5082.727763"/>
    <poly id="1050723598" type="building" color="255,230,230" fill="1" layer="-1.00" shape="2620.080131,5069.607611 2622.406907,5077.710163 2629.118784,5075.801964 2626.792012,5067.699411 2620.080131,5069.607611"/>
    <poly id="1050723599" type="building" color="255,230,230" fill="1" layer="-1.00" shape="2614.358034,5069.502714 2622.625859,5067.321968 2618.708487,5052.610467 2610.440654,5054.791214 2614.358034,5069.502714"/>
    <poly id="1050723600" type="building" color="255,230,230" fill="1" layer="-1.00" shape="2601.041506,5056.882035 2605.006711,5071.958368 2612.948065,5069.894469 2608.993134,5054.817945 2601.041506,5056.882035"/>
    <poly id="1050723601" type="building" color="255,230,230" fill="1" layer="-1.00" shape="2584.082227,5055.543972 2585.455966,5069.316117 2598.177154,5068.050521 2596.793365,5054.289644 2584.082227,5055.543972"/>
    <poly id="1050723602" type="building" color="255,230,230" fill="1" layer="-1.00" shape="2218.580234,4829.724030 2231.922742,4875.934620 2250.045546,4870.756536 2236.692827,4824.546126 2218.580234,4829.724030"/>
    <poly id="1050723603" type="building" color="255,230,230" fill="1" layer="-1.00" shape="2242.640043,4966.789218 2204.834113,4939.405577 2198.743667,4947.708083 2236.549591,4975.091707 2242.640043,4966.789218"/>
    <poly id="1050723604" type="building" color="255,230,230" fill="1" layer="-1.00" shape="2210.871005,4930.428040 2205.462263,4937.831346 2243.693615,4965.450934 2249.102362,4958.047643 2210.871005,4930.428040"/>
    <poly id="1050723605" type="building" color="255,230,230" fill="1" layer="-1.00" shape="2202.046460,4933.605634 2207.245963,4926.549750 2173.881944,4902.242505 2168.682445,4909.298401 2202.046460,4933.605634"/>
    <poly id="1050723606" type="building" color="255,230,230" fill="1" layer="-1.00" shape="2167.684676,4922.538132 2195.686771,4943.453571 2201.460787,4935.810776 2173.458689,4914.895325 2167.684676,4922.538132"/>
    <poly id="1050723607" type="building" color="255,230,230" fill="1" layer="-1.00" shape="2146.730944,4877.931226 2145.649789,4886.661974 2166.719086,4889.209116 2167.789986,4880.478561 2146.730944,4877.931226"/>
    <poly id="1073310690" type="water" color="181,209,209" fill="1" layer="-4.00" shape="3249.438834,5385.014815 3247.634283,5328.883036 3242.018470,5278.251810 3246.025354,5273.335017 3292.482656,5268.799717 3295.058383,5274.271239 3301.517793,5370.701076 3280.666634,5382.721647 3249.438834,5385.014815"/>
    <poly id="1073310691" type="water" color="181,209,209" fill="1" layer="-4.00" shape="3134.440008,5616.017107 3135.774945,5633.280885 3147.465140,5632.378256 3146.120156,5615.125747 3134.440008,5616.017107"/>
    <poly id="1073310692" type="water" color="181,209,209" fill="1" layer="-4.00" shape="3015.161457,5977.760220 3015.914412,5991.300004 3029.045375,5990.581234 3028.292228,5977.030372 3015.161457,5977.760220"/>
    <poly id="1073310693" type="water" color="181,209,209" fill="1" layer="-4.00" shape="3162.417563,5904.782608 3172.260932,5904.534632 3171.777395,5885.548482 3161.934014,5885.796457 3162.417563,5904.782608"/>
    <poly id="1073310694" type="water" color="181,209,209" fill="1" layer="-4.00" shape="3384.522396,5919.141225 3396.563079,5917.766850 3393.472840,5891.048986 3381.422074,5892.434629 3384.522396,5919.141225"/>
    <poly id="1073310695" type="water" color="181,209,209" fill="1" layer="-4.00" shape="3515.292840,6284.697379 3526.836353,6283.664697 3525.391018,6267.633098 3513.837228,6268.665969 3515.292840,6284.697379"/>
    <poly id="1073310696" type="water" color="181,209,209" fill="1" layer="-4.00" shape="3400.752684,6292.880401 3408.239135,6292.354587 3407.074158,6275.941020 3399.587699,6276.466834 3400.752684,6292.880401"/>
    <poly id="1073310697" type="water" color="181,209,209" fill="1" layer="-4.00" shape="3176.446873,6325.928576 3185.519107,6325.085268 3183.721579,6306.123340 3174.649334,6306.966648 3176.446873,6325.928576"/>
    <poly id="1073310734" type="water" color="181,209,209" fill="1" layer="-4.00" shape="3522.816476,6461.819839 3525.341870,6474.606605 3538.510163,6472.036799 3535.995046,6459.249844 3522.816476,6461.819839"/>
    <poly id="1073311978" type="water" color="181,209,209" fill="1" layer="-4.00" shape="4138.634109,5800.340838 4129.735768,5713.409200 4156.144503,5711.560934 4161.306625,5715.300552 4168.675165,5808.965026 4164.449908,5811.502896 4148.890187,5811.378699 4138.634109,5800.340838"/>
    <poly id="1073311979" type="building" color="255,230,230" fill="1" layer="-1.00" shape="3907.780974,6013.849689 3928.212160,6013.086117 3928.028308,6008.113574 3907.596911,6008.866067 3907.780974,6013.849689"/>
    <poly id="1073311980" type="building" color="255,230,230" fill="1" layer="-1.00" shape="3910.958601,6027.499984 3916.448319,6027.277131 3915.905881,6014.531451 3910.426628,6014.765194 3910.958601,6027.499984"/>
    <poly id="1073311981" type="building" color="255,230,230" fill="1" layer="-1.00" shape="3895.876674,6015.376306 3896.418925,6028.110908 3910.958601,6027.499984 3910.426628,6014.765194 3895.876674,6015.376306"/>
    <poly id="1073311981#1" type="shop" color="237,199,255" fill="1" layer="-1.00" shape="3895.876674,6015.376306 3896.418925,6028.110908 3910.958601,6027.499984 3910.426628,6014.765194 3895.876674,6015.376306"/>
    <poly id="1073311982" type="building" color="255,230,230" fill="1" layer="-1.00" shape="3896.115386,6007.137813 3897.150222,6013.712714 3907.051964,6012.178595 3906.027398,6005.603504 3896.115386,6007.137813"/>
    <poly id="1073311983" type="building" color="255,230,230" fill="1" layer="-1.00" shape="3882.241166,6004.289934 3893.339526,6003.609297 3891.963453,5981.270645 3880.854811,5981.951470 3882.241166,6004.289934"/>
    <poly id="1073311984" type="building" color="255,230,230" fill="1" layer="-1.00" shape="3876.556743,6007.885380 3876.907809,6022.507481 3894.531579,6022.083632 3894.180530,6007.461532 3876.556743,6007.885380"/>
    <poly id="1073311985" type="building" color="255,230,230" fill="1" layer="-1.00" shape="3851.759107,6020.254864 3869.636208,6018.529704 3866.873296,5990.021583 3848.995957,5991.735664 3851.759107,6020.254864"/>
    <poly id="1073311986" type="water" color="181,209,209" fill="1" layer="-4.00" shape="3991.319385,6376.985686 4098.207980,6364.304262 4091.112331,6305.078275 3984.223310,6317.759706 3991.319385,6376.985686"/>
    <poly id="1073311987" type="water" color="181,209,209" fill="1" layer="-4.00" shape="3886.622389,6384.319180 3931.160656,6381.715798 3928.056949,6329.087905 3883.518525,6331.691280 3886.622389,6384.319180"/>
    <poly id="1073311988" type="building" color="255,230,230" fill="1" layer="-1.00" shape="3880.060117,6327.898270 3922.422343,6325.334908 3920.009069,6285.682703 3877.646731,6288.246061 3880.060117,6327.898270"/>
    <poly id="1073311989" type="building" color="255,230,230" fill="1" layer="-1.00" shape="3805.762497,6368.972739 3859.683420,6365.653496 3855.071411,6291.332130 3801.150219,6294.651361 3805.762497,6368.972739"/>
    <poly id="1081630337" type="landuse" color="194,194,130" fill="1" layer="-3.00" shape="4609.965666,2128.973234 4807.479090,2138.235216 4903.907278,2142.765686 4909.307296,2076.916853 4821.307489,1995.255819 4825.345122,1944.780563 5122.051181,1959.624193 5122.042708,1868.673789 5063.468227,1859.338301 5066.859849,1743.125082 5206.369601,1748.798661 5209.627958,1656.148520 5301.126330,1657.757607 5304.375601,1564.010612 5024.818512,1553.780554 5026.881286,1424.991316 4858.375613,1430.809483 4835.116926,1545.192023 4765.663252,1543.725327 4713.286279,1632.343153 4719.682907,1771.395156 4736.518796,1848.329315 4728.200005,1875.333498 4605.662273,2013.997471 4609.965666,2128.973234"/>
    <poly id="1081630338" type="landuse" color="194,194,130" fill="1" layer="-3.00" shape="4399.090736,2137.767631 4433.058857,2156.860317 4692.678888,1861.189010 4683.661148,1820.261609 4654.003542,1735.339247 4655.742904,1679.974433 4537.726777,1854.717002 4465.740018,2016.006068 4399.090736,2137.767631"/>
    <poly id="1081630339" type="landuse" color="194,194,130" fill="1" layer="-3.00" shape="4556.852468,2718.883463 4675.368575,2721.644319 4876.964386,2688.375972 4988.831450,2658.934496 4995.220082,2586.495910 4785.674349,2577.186459 4789.052850,2460.984115 4690.883955,2457.206822 4576.773054,2452.813410 4586.457879,2139.255714 4493.369060,2140.417698 4407.760636,2249.915150 4414.057313,2292.532491 4540.314489,2687.956985 4556.852468,2718.883463"/>
    <poly id="1081630340" type="landuse" color="194,194,130" fill="1" layer="-3.00" shape="4636.090026,2757.970498 4836.339160,2876.750578 4982.764818,2914.609674 5067.285921,3002.363260 5124.994590,3009.519817 5197.574249,2986.283651 5237.790988,2986.091591 5276.852157,2997.978050 5305.580976,2941.854337 5400.190439,2948.337751 5398.751124,3005.613972 5495.230453,3008.783483 5504.182836,2789.760586 4646.084887,2747.381334 4636.090026,2757.970498"/>
    <poly id="1081630341" type="landuse" color="194,194,130" fill="1" layer="-3.00" shape="3988.633312,2800.251760 4045.374975,2829.608643 4033.827846,2950.893423 4120.077410,2967.396594 4111.467172,3008.636225 4227.512909,2997.198071 4308.959454,2931.605075 4354.240546,2877.092847 4381.137515,2811.403448 4394.980015,2769.791118 4407.871810,2767.083491 4519.558495,2773.259667 4535.278796,2758.997069 4391.795812,2355.665384 4325.137533,2356.344181 4261.396552,2366.001735 4246.453449,2437.223704 4269.737156,2595.681618 4144.974190,2612.487605 4086.861812,2658.469884 4039.014460,2738.241990 3988.633312,2800.251760"/>
    <poly id="1081630342" type="landuse" color="194,194,130" fill="1" layer="-3.00" shape="3867.483200,3583.405741 3888.976414,3598.902766 3949.602026,3599.972348 3981.175605,3579.400197 4009.415040,3512.044914 3917.822943,3459.501798 3881.159304,3473.041705 3872.611250,3502.511169 3867.483200,3583.405741"/>
    <poly id="1081630343" type="landuse" color="194,194,130" fill="1" layer="-3.00" shape="3581.492584,3281.330250 3674.394247,3269.770130 3702.860082,3199.672738 3666.486343,3079.268086 3595.687931,3094.267237 3574.296424,3249.689829 3581.492584,3281.330250"/>
    <poly id="1081630344" type="landuse" color="194,194,130" fill="1" layer="-3.00" shape="3299.961673,3386.770926 3316.164080,3413.856931 3355.775636,3425.451316 3420.555094,3412.755854 3444.685112,3376.704636 3441.641146,3361.422817 3299.961673,3386.770926"/>
    <poly id="1081630345" type="landuse" color="194,194,130" fill="1" layer="-3.00" shape="3235.042736,3601.066897 3430.205002,3638.013323 3434.463699,3584.795590 3445.727355,3523.225952 3417.213456,3515.815727 3416.402288,3456.662545 3355.861355,3445.176144 3319.530743,3491.858357 3268.535290,3550.325145 3235.042736,3601.066897"/>
    <poly id="1081630346" type="landuse" color="194,194,130" fill="1" layer="-3.00" shape="3519.466524,2306.581149 3553.702366,2518.974171 3539.382090,2609.358068 3484.588504,2610.642644 3429.112341,2770.260756 3531.139147,2774.967228 3523.857025,2738.662773 3543.266609,2685.443681 3579.569082,2667.244192 3597.911405,2795.649140 3598.574827,2876.991522 3587.010422,3041.830547 3561.950887,3147.472731 3287.568680,3207.311386 3276.823650,3027.544472 3257.158076,2887.106443 3256.724652,2848.492775 3340.814077,2837.359091 3343.732494,2786.083265 3425.379895,2596.936789 3425.370353,2551.743623 3330.060596,2522.544241 3293.213675,2511.164747 3149.328721,2552.168775 3067.355708,2663.248552 3021.260544,2658.888906 3042.442412,2597.136232 3018.537342,2540.602604 3052.510840,2485.740264 3052.817659,2442.724348 3049.254052,2398.693652 3064.887685,2364.704588 3174.431956,2389.262958 3190.438883,2330.897321 3269.516456,2316.287363 3519.466524,2306.581149"/>
    <poly id="1081630347" type="landuse" color="194,194,130" fill="1" layer="-3.00" shape="3822.612701,2250.509414 3868.192199,2302.268519 3910.342719,2332.314184 3944.332460,2382.779065 3956.829460,2425.692595 3983.026532,2539.579831 3964.657361,2619.354118 3788.445754,2984.989103 3678.907104,2960.980941 3619.175381,2978.513824 3606.162563,2975.184575 3613.478833,2818.369651 3597.550485,2701.146612 3548.433267,2397.177710 3537.387554,2305.885975 3732.214298,2278.467835 3822.612701,2250.509414"/>
    <poly id="1081630348" type="landuse" color="194,194,130" fill="1" layer="-3.00" shape="3571.086225,226.533883 3653.750680,286.378050 3907.181339,343.100317 4004.522658,392.270802 4068.158018,496.860948 4115.627270,531.597650 4221.296042,553.775730 4376.787961,649.547048 4447.773355,704.134240 4466.962322,759.126965 4484.078187,880.993880 4417.866630,996.717870 4138.486776,1147.035514 4311.330610,1648.470414 4642.492455,1527.904470 4526.836469,1726.707374 4427.653927,1877.002471 4361.481804,1949.162823 4361.645528,1981.076384 4303.591131,2052.811267 4248.520119,2052.502087 4242.927673,2109.943677 4155.581078,2154.278263 3999.820383,2223.972533 3934.868918,2242.696689 3822.612701,2250.509414 3732.214298,2278.467835 3537.387554,2305.885975 3519.466524,2306.581149 3269.516456,2316.287363 3264.235234,2178.876091 3386.748688,2159.633230 3359.463021,2068.917253 3456.374763,2005.218670 3456.769480,1922.216665 3365.463655,1841.166829 3394.747808,1785.283666 3493.838323,1750.592005 3539.218915,1805.922539 3588.871894,1719.255927 3687.041652,1664.036165 3719.851221,1590.291075 3797.947907,1627.212426 3840.989672,1660.943204 3874.336247,1646.633486 3953.266857,1623.807344 3987.180693,1745.088907 4026.182792,1723.838045 4054.358928,1697.566191 4061.337850,1642.370904 4050.347830,1599.296659 3996.738203,1545.489930 3989.315684,1516.036728 3983.014534,1443.010039 3874.475450,1383.916849 3853.939028,1330.600639 3861.404747,1211.840015 3836.589867,1135.861705 3800.947601,1070.499403 3649.502215,1105.595767 3555.188560,1041.034542 3568.006000,628.774159 3441.408179,606.442116 3508.182379,401.934516 3571.086225,226.533883"/>
    <poly id="1097377290" type="landuse" color="194,194,130" fill="1" layer="-3.00" shape="3978.866434,6406.737734 4669.571597,6343.108505 4698.739839,6581.926332 4494.866395,6668.916439 4439.462462,6681.436826 4001.836746,6727.268053 3978.866434,6406.737734"/>